This is a file.
New line.
Test.
1234567890